<?xml version="1.0" encoding="UTF-8"?>

<!-- generated on 2025-07-22 11:25:09 by Eclipse SUMO netedit Version 1.21.0
<neteditConfiguration xmlns:xsi="http://www.w3.org/2001/XMLSchema-instance" xsi:noNamespaceSchemaLocation="http://sumo.dlr.de/xsd/neteditConfiguration.xsd">

    <input>
        <sumo-net-file value="E:\gitwarehouse\sumo_traci_generate_accident-main1\src\sumo_files\road.net.xml"/>
    </input>

    <output>
        <output-file value="E:\gitwarehouse\sumo_traci_generate_accident-main1\src\sumo_files\road.net.xml"/>
    </output>

    <processing>
        <geometry.min-radius.fix.railways value="false"/>
        <geometry.max-grade.fix value="false"/>
        <offset.disable-normalization value="true"/>
        <lefthand value="0"/>
    </processing>

    <junctions>
        <no-turnarounds value="true"/>
        <junctions.corner-detail value="5"/>
        <junctions.limit-turn-speed value="5.50"/>
        <rectangular-lane-cut value="0"/>
    </junctions>

    <pedestrian>
        <walkingareas value="0"/>
    </pedestrian>

</neteditConfiguration>
-->

<net version="1.20" junctionCornerDetail="5" limitTurnSpeed="5.50" xmlns:xsi="http://www.w3.org/2001/XMLSchema-instance" xsi:noNamespaceSchemaLocation="http://sumo.dlr.de/xsd/net_file.xsd">

    <location netOffset="0.00,0.00" convBoundary="0.00,0.00,600.00,600.00" origBoundary="0.00,0.00,600.00,600.00" projParameter="!"/>

    <edge id=":B1_0" function="internal">
        <lane id=":B1_0_0" index="0" speed="6.51" length="9.03" shape="292.00,313.60 291.65,311.15 290.60,309.40 288.85,308.35 286.40,308.00"/>
    </edge>
    <edge id=":B1_1" function="internal">
        <lane id=":B1_1_0" index="0" speed="13.89" length="27.20" shape="292.00,313.60 292.00,286.40"/>
        <lane id=":B1_1_1" index="1" speed="13.89" length="27.20" shape="295.20,313.60 295.20,286.40"/>
        <lane id=":B1_1_2" index="2" speed="13.89" length="27.20" shape="298.40,313.60 298.40,286.40"/>
    </edge>
    <edge id=":B1_4" function="internal">
        <lane id=":B1_4_0" index="0" speed="10.36" length="5.01" shape="298.40,313.60 299.11,308.64"/>
    </edge>
    <edge id=":B1_20" function="internal">
        <lane id=":B1_20_0" index="0" speed="10.36" length="19.50" shape="299.11,308.64 299.35,306.95 302.20,302.20 306.95,299.35 313.60,298.40"/>
    </edge>
    <edge id=":B1_5" function="internal">
        <lane id=":B1_5_0" index="0" speed="6.51" length="9.03" shape="313.60,308.00 311.15,308.35 309.40,309.40 308.35,311.15 308.00,313.60"/>
    </edge>
    <edge id=":B1_6" function="internal">
        <lane id=":B1_6_0" index="0" speed="13.89" length="27.20" shape="313.60,308.00 286.40,308.00"/>
        <lane id=":B1_6_1" index="1" speed="13.89" length="27.20" shape="313.60,304.80 286.40,304.80"/>
        <lane id=":B1_6_2" index="2" speed="13.89" length="27.20" shape="313.60,301.60 286.40,301.60"/>
    </edge>
    <edge id=":B1_9" function="internal">
        <lane id=":B1_9_0" index="0" speed="10.36" length="5.01" shape="313.60,301.60 308.64,300.89"/>
    </edge>
    <edge id=":B1_21" function="internal">
        <lane id=":B1_21_0" index="0" speed="10.36" length="19.50" shape="308.64,300.89 306.95,300.65 302.20,297.80 299.35,293.05 298.40,286.40"/>
    </edge>
    <edge id=":B1_10" function="internal">
        <lane id=":B1_10_0" index="0" speed="6.51" length="9.03" shape="308.00,286.40 308.35,288.85 309.40,290.60 311.15,291.65 313.60,292.00"/>
    </edge>
    <edge id=":B1_11" function="internal">
        <lane id=":B1_11_0" index="0" speed="13.89" length="27.20" shape="308.00,286.40 308.00,313.60"/>
        <lane id=":B1_11_1" index="1" speed="13.89" length="27.20" shape="304.80,286.40 304.80,313.60"/>
        <lane id=":B1_11_2" index="2" speed="13.89" length="27.20" shape="301.60,286.40 301.60,313.60"/>
    </edge>
    <edge id=":B1_14" function="internal">
        <lane id=":B1_14_0" index="0" speed="10.36" length="5.01" shape="301.60,286.40 300.89,291.36"/>
    </edge>
    <edge id=":B1_22" function="internal">
        <lane id=":B1_22_0" index="0" speed="10.36" length="19.50" shape="300.89,291.36 300.65,293.05 297.80,297.80 293.05,300.65 286.40,301.60"/>
    </edge>
    <edge id=":B1_15" function="internal">
        <lane id=":B1_15_0" index="0" speed="6.51" length="9.03" shape="286.40,292.00 288.85,291.65 290.60,290.60 291.65,288.85 292.00,286.40"/>
    </edge>
    <edge id=":B1_16" function="internal">
        <lane id=":B1_16_0" index="0" speed="13.89" length="27.20" shape="286.40,292.00 313.60,292.00"/>
        <lane id=":B1_16_1" index="1" speed="13.89" length="27.20" shape="286.40,295.20 313.60,295.20"/>
        <lane id=":B1_16_2" index="2" speed="13.89" length="27.20" shape="286.40,298.40 313.60,298.40"/>
    </edge>
    <edge id=":B1_19" function="internal">
        <lane id=":B1_19_0" index="0" speed="10.36" length="5.01" shape="286.40,298.40 291.36,299.11"/>
    </edge>
    <edge id=":B1_23" function="internal">
        <lane id=":B1_23_0" index="0" speed="10.36" length="19.50" shape="291.36,299.11 293.05,299.35 297.80,302.20 300.65,306.95 301.60,313.60"/>
    </edge>

    <edge id="A1B1" from="A1" to="B1" priority="-1">
        <lane id="A1B1_0" index="0" speed="13.89" length="286.40" shape="0.00,292.00 286.40,292.00"/>
        <lane id="A1B1_1" index="1" speed="13.89" length="286.40" shape="0.00,295.20 286.40,295.20"/>
        <lane id="A1B1_2" index="2" speed="13.89" length="286.40" shape="0.00,298.40 286.40,298.40"/>
    </edge>
    <edge id="B0B1" from="B0" to="B1" priority="-1">
        <lane id="B0B1_0" index="0" speed="13.89" length="286.40" shape="308.00,0.00 308.00,286.40"/>
        <lane id="B0B1_1" index="1" speed="13.89" length="286.40" shape="304.80,0.00 304.80,286.40"/>
        <lane id="B0B1_2" index="2" speed="13.89" length="286.40" shape="301.60,0.00 301.60,286.40"/>
    </edge>
    <edge id="B1A1" from="B1" to="A1" priority="-1">
        <lane id="B1A1_0" index="0" speed="13.89" length="286.40" shape="286.40,308.00 0.00,308.00"/>
        <lane id="B1A1_1" index="1" speed="13.89" length="286.40" shape="286.40,304.80 0.00,304.80"/>
        <lane id="B1A1_2" index="2" speed="13.89" length="286.40" shape="286.40,301.60 0.00,301.60"/>
    </edge>
    <edge id="B1B0" from="B1" to="B0" priority="-1">
        <lane id="B1B0_0" index="0" speed="13.89" length="286.40" shape="292.00,286.40 292.00,0.00"/>
        <lane id="B1B0_1" index="1" speed="13.89" length="286.40" shape="295.20,286.40 295.20,0.00"/>
        <lane id="B1B0_2" index="2" speed="13.89" length="286.40" shape="298.40,286.40 298.40,0.00"/>
    </edge>
    <edge id="B1B2" from="B1" to="B2" priority="-1">
        <lane id="B1B2_0" index="0" speed="13.89" length="286.40" shape="308.00,313.60 308.00,600.00"/>
        <lane id="B1B2_1" index="1" speed="13.89" length="286.40" shape="304.80,313.60 304.80,600.00"/>
        <lane id="B1B2_2" index="2" speed="13.89" length="286.40" shape="301.60,313.60 301.60,600.00"/>
    </edge>
    <edge id="B1C1" from="B1" to="C1" priority="-1">
        <lane id="B1C1_0" index="0" speed="13.89" length="286.40" shape="313.60,292.00 600.00,292.00"/>
        <lane id="B1C1_1" index="1" speed="13.89" length="286.40" shape="313.60,295.20 600.00,295.20"/>
        <lane id="B1C1_2" index="2" speed="13.89" length="286.40" shape="313.60,298.40 600.00,298.40"/>
    </edge>
    <edge id="B2B1" from="B2" to="B1" priority="-1">
        <lane id="B2B1_0" index="0" speed="13.89" length="286.40" shape="292.00,600.00 292.00,313.60"/>
        <lane id="B2B1_1" index="1" speed="13.89" length="286.40" shape="295.20,600.00 295.20,313.60"/>
        <lane id="B2B1_2" index="2" speed="13.89" length="286.40" shape="298.40,600.00 298.40,313.60"/>
    </edge>
    <edge id="C1B1" from="C1" to="B1" priority="-1">
        <lane id="C1B1_0" index="0" speed="13.89" length="286.40" shape="600.00,308.00 313.60,308.00"/>
        <lane id="C1B1_1" index="1" speed="13.89" length="286.40" shape="600.00,304.80 313.60,304.80"/>
        <lane id="C1B1_2" index="2" speed="13.89" length="286.40" shape="600.00,301.60 313.60,301.60"/>
    </edge>

    <tlLogic id="B1" type="static" programID="0" offset="0">
        <phase duration="42" state="GGGGgrrrrrGGGGgrrrrr"/>
        <phase duration="3"  state="yyyyyrrrrryyyyyrrrrr"/>
        <phase duration="42" state="rrrrrGGGGgrrrrrGGGGg"/>
        <phase duration="3"  state="rrrrryyyyyrrrrryyyyy"/>
    </tlLogic>

    <junction id="A1" type="dead_end" x="0.00" y="300.00" incLanes="B1A1_0 B1A1_1 B1A1_2" intLanes="" shape="0.00,300.00 0.00,309.60 0.00,300.00"/>
    <junction id="B0" type="dead_end" x="300.00" y="0.00" incLanes="B1B0_0 B1B0_1 B1B0_2" intLanes="" shape="300.00,0.00 290.40,0.00 300.00,0.00"/>
    <junction id="B1" type="traffic_light" x="300.00" y="300.00" incLanes="B2B1_0 B2B1_1 B2B1_2 C1B1_0 C1B1_1 C1B1_2 B0B1_0 B0B1_1 B0B1_2 A1B1_0 A1B1_1 A1B1_2" intLanes=":B1_0_0 :B1_1_0 :B1_1_1 :B1_1_2 :B1_20_0 :B1_5_0 :B1_6_0 :B1_6_1 :B1_6_2 :B1_21_0 :B1_10_0 :B1_11_0 :B1_11_1 :B1_11_2 :B1_22_0 :B1_15_0 :B1_16_0 :B1_16_1 :B1_16_2 :B1_23_0" shape="290.40,313.60 309.60,313.60 310.04,311.38 310.60,310.60 311.38,310.04 312.38,309.71 313.60,309.60 313.60,290.40 311.38,289.96 310.60,289.40 310.04,288.62 309.71,287.62 309.60,286.40 290.40,286.40 289.96,288.62 289.40,289.40 288.62,289.96 287.62,290.29 286.40,290.40 286.40,309.60 288.62,310.04 289.40,310.60 289.96,311.38 290.29,312.38">
        <request index="0"  response="00000000000000000000" foes="00000000000111000000" cont="0"/>
        <request index="1"  response="10000000001000000000" foes="11111100001111000000" cont="0"/>
        <request index="2"  response="10000000001000000000" foes="11111100001111000000" cont="0"/>
        <request index="3"  response="10000000001000000000" foes="11111100001111000000" cont="0"/>
        <request index="4"  response="10000011101000000000" foes="11110011101111000000" cont="1"/>
        <request index="5"  response="00000011100000000000" foes="00000011100000000000" cont="0"/>
        <request index="6"  response="00000111100000011111" foes="10000111100000011111" cont="0"/>
        <request index="7"  response="00000111100000011111" foes="10000111100000011111" cont="0"/>
        <request index="8"  response="00000111100000011111" foes="10000111100000011111" cont="0"/>
        <request index="9"  response="01110111100000011110" foes="01110111100000011110" cont="1"/>
        <request index="10" response="00000000000000000000" foes="01110000000000000000" cont="0"/>
        <request index="11" response="10000000001000000000" foes="11110000001111110000" cont="0"/>
        <request index="12" response="10000000001000000000" foes="11110000001111110000" cont="0"/>
        <request index="13" response="10000000001000000000" foes="11110000001111110000" cont="0"/>
        <request index="14" response="10000000001000001110" foes="11110000001111001110" cont="1"/>
        <request index="15" response="00000000000000001110" foes="00000000000000001110" cont="0"/>
        <request index="16" response="00000111110000011110" foes="00000111111000011110" cont="0"/>
        <request index="17" response="00000111110000011110" foes="00000111111000011110" cont="0"/>
        <request index="18" response="00000111110000011110" foes="00000111111000011110" cont="0"/>
        <request index="19" response="00000111100111011110" foes="00000111100111011110" cont="1"/>
    </junction>
    <junction id="B2" type="dead_end" x="300.00" y="600.00" incLanes="B1B2_0 B1B2_1 B1B2_2" intLanes="" shape="300.00,600.00 309.60,600.00 300.00,600.00"/>
    <junction id="C1" type="dead_end" x="600.00" y="300.00" incLanes="B1C1_0 B1C1_1 B1C1_2" intLanes="" shape="600.00,300.00 600.00,290.40 600.00,300.00"/>

    <junction id=":B1_20_0" type="internal" x="299.11" y="308.64" incLanes=":B1_4_0 B0B1_0 B0B1_1 B0B1_2" intLanes=":B1_6_0 :B1_6_1 :B1_6_2 :B1_9_0 :B1_10_0 :B1_11_0 :B1_11_1 :B1_11_2 :B1_16_0 :B1_16_1 :B1_16_2 :B1_19_0"/>
    <junction id=":B1_21_0" type="internal" x="308.64" y="300.89" incLanes=":B1_9_0 A1B1_0 A1B1_1 A1B1_2" intLanes=":B1_1_0 :B1_1_1 :B1_1_2 :B1_4_0 :B1_11_0 :B1_11_1 :B1_11_2 :B1_14_0 :B1_15_0 :B1_16_0 :B1_16_1 :B1_16_2"/>
    <junction id=":B1_22_0" type="internal" x="300.89" y="291.36" incLanes=":B1_14_0 B2B1_0 B2B1_1 B2B1_2" intLanes=":B1_0_0 :B1_1_0 :B1_1_1 :B1_1_2 :B1_6_0 :B1_6_1 :B1_6_2 :B1_9_0 :B1_16_0 :B1_16_1 :B1_16_2 :B1_19_0"/>
    <junction id=":B1_23_0" type="internal" x="291.36" y="299.11" incLanes=":B1_19_0 C1B1_0 C1B1_1 C1B1_2" intLanes=":B1_1_0 :B1_1_1 :B1_1_2 :B1_4_0 :B1_5_0 :B1_6_0 :B1_6_1 :B1_6_2 :B1_11_0 :B1_11_1 :B1_11_2 :B1_14_0"/>

    <connection from="A1B1" to="B1B0" fromLane="0" toLane="0" via=":B1_15_0" tl="B1" linkIndex="15" dir="r" state="o"/>
    <connection from="A1B1" to="B1C1" fromLane="0" toLane="0" via=":B1_16_0" tl="B1" linkIndex="16" dir="s" state="o"/>
    <connection from="A1B1" to="B1C1" fromLane="1" toLane="1" via=":B1_16_1" tl="B1" linkIndex="17" dir="s" state="o"/>
    <connection from="A1B1" to="B1C1" fromLane="2" toLane="2" via=":B1_16_2" tl="B1" linkIndex="18" dir="s" state="o"/>
    <connection from="A1B1" to="B1B2" fromLane="2" toLane="2" via=":B1_19_0" tl="B1" linkIndex="19" dir="l" state="o"/>
    <connection from="B0B1" to="B1C1" fromLane="0" toLane="0" via=":B1_10_0" tl="B1" linkIndex="10" dir="r" state="O"/>
    <connection from="B0B1" to="B1B2" fromLane="0" toLane="0" via=":B1_11_0" tl="B1" linkIndex="11" dir="s" state="O"/>
    <connection from="B0B1" to="B1B2" fromLane="1" toLane="1" via=":B1_11_1" tl="B1" linkIndex="12" dir="s" state="O"/>
    <connection from="B0B1" to="B1B2" fromLane="2" toLane="2" via=":B1_11_2" tl="B1" linkIndex="13" dir="s" state="O"/>
    <connection from="B0B1" to="B1A1" fromLane="2" toLane="2" via=":B1_14_0" tl="B1" linkIndex="14" dir="l" state="o"/>
    <connection from="B2B1" to="B1A1" fromLane="0" toLane="0" via=":B1_0_0" tl="B1" linkIndex="0" dir="r" state="O"/>
    <connection from="B2B1" to="B1B0" fromLane="0" toLane="0" via=":B1_1_0" tl="B1" linkIndex="1" dir="s" state="O"/>
    <connection from="B2B1" to="B1B0" fromLane="1" toLane="1" via=":B1_1_1" tl="B1" linkIndex="2" dir="s" state="O"/>
    <connection from="B2B1" to="B1B0" fromLane="2" toLane="2" via=":B1_1_2" tl="B1" linkIndex="3" dir="s" state="O"/>
    <connection from="B2B1" to="B1C1" fromLane="2" toLane="2" via=":B1_4_0" tl="B1" linkIndex="4" dir="l" state="o"/>
    <connection from="C1B1" to="B1B2" fromLane="0" toLane="0" via=":B1_5_0" tl="B1" linkIndex="5" dir="r" state="o"/>
    <connection from="C1B1" to="B1A1" fromLane="0" toLane="0" via=":B1_6_0" tl="B1" linkIndex="6" dir="s" state="o"/>
    <connection from="C1B1" to="B1A1" fromLane="1" toLane="1" via=":B1_6_1" tl="B1" linkIndex="7" dir="s" state="o"/>
    <connection from="C1B1" to="B1A1" fromLane="2" toLane="2" via=":B1_6_2" tl="B1" linkIndex="8" dir="s" state="o"/>
    <connection from="C1B1" to="B1B0" fromLane="2" toLane="2" via=":B1_9_0" tl="B1" linkIndex="9" dir="l" state="o"/>

    <connection from=":B1_0" to="B1A1" fromLane="0" toLane="0" dir="r" state="M"/>
    <connection from=":B1_1" to="B1B0" fromLane="0" toLane="0" dir="s" state="M"/>
    <connection from=":B1_1" to="B1B0" fromLane="1" toLane="1" dir="s" state="M"/>
    <connection from=":B1_1" to="B1B0" fromLane="2" toLane="2" dir="s" state="M"/>
    <connection from=":B1_4" to="B1C1" fromLane="0" toLane="2" via=":B1_20_0" dir="l" state="m"/>
    <connection from=":B1_20" to="B1C1" fromLane="0" toLane="2" dir="l" state="M"/>
    <connection from=":B1_5" to="B1B2" fromLane="0" toLane="0" dir="r" state="M"/>
    <connection from=":B1_6" to="B1A1" fromLane="0" toLane="0" dir="s" state="M"/>
    <connection from=":B1_6" to="B1A1" fromLane="1" toLane="1" dir="s" state="M"/>
    <connection from=":B1_6" to="B1A1" fromLane="2" toLane="2" dir="s" state="M"/>
    <connection from=":B1_9" to="B1B0" fromLane="0" toLane="2" via=":B1_21_0" dir="l" state="m"/>
    <connection from=":B1_21" to="B1B0" fromLane="0" toLane="2" dir="l" state="M"/>
    <connection from=":B1_10" to="B1C1" fromLane="0" toLane="0" dir="r" state="M"/>
    <connection from=":B1_11" to="B1B2" fromLane="0" toLane="0" dir="s" state="M"/>
    <connection from=":B1_11" to="B1B2" fromLane="1" toLane="1" dir="s" state="M"/>
    <connection from=":B1_11" to="B1B2" fromLane="2" toLane="2" dir="s" state="M"/>
    <connection from=":B1_14" to="B1A1" fromLane="0" toLane="2" via=":B1_22_0" dir="l" state="m"/>
    <connection from=":B1_22" to="B1A1" fromLane="0" toLane="2" dir="l" state="M"/>
    <connection from=":B1_15" to="B1B0" fromLane="0" toLane="0" dir="r" state="M"/>
    <connection from=":B1_16" to="B1C1" fromLane="0" toLane="0" dir="s" state="M"/>
    <connection from=":B1_16" to="B1C1" fromLane="1" toLane="1" dir="s" state="M"/>
    <connection from=":B1_16" to="B1C1" fromLane="2" toLane="2" dir="s" state="M"/>
    <connection from=":B1_19" to="B1B2" fromLane="0" toLane="2" via=":B1_23_0" dir="l" state="m"/>
    <connection from=":B1_23" to="B1B2" fromLane="0" toLane="2" dir="l" state="M"/>

</net>
