<routes>
    <vType id="car" accel="2.0" decel="4.5" sigma="0.5" length="5" maxSpeed="13.89" guiShape="passenger"/>
    <vehicle id="veh0" type="car" depart="0">
        <route edges="B2B1 B1A1"/>
    </vehicle>
    <vehicle id="veh1" type="car" depart="1">
        <route edges="A1B1 B1B2"/>
    </vehicle>
    <vehicle id="veh2" type="car" depart="2">
        <route edges="B2B1 B1B0"/>
    </vehicle>
    <vehicle id="veh3" type="car" depart="3">
        <route edges="A1B1 B1B2"/>
    </vehicle>
    <vehicle id="veh4" type="car" depart="4">
        <route edges="B2B1 B1C1"/>
    </vehicle>
    <vehicle id="veh5" type="car" depart="5">
        <route edges="A1B1 B1B0"/>
    </vehicle>
    <vehicle id="veh6" type="car" depart="6">
        <route edges="B0B1 B1B2"/>
    </vehicle>
    <vehicle id="veh7" type="car" depart="7">
        <route edges="C1B1 B1B2"/>
    </vehicle>
    <vehicle id="veh8" type="car" depart="8">
        <route edges="C1B1 B1A1"/>
    </vehicle>
    <vehicle id="veh9" type="car" depart="9">
        <route edges="C1B1 B1A1"/>
    </vehicle>
    <vehicle id="veh10" type="car" depart="10">
        <route edges="C1B1 B1B2"/>
    </vehicle>
    <vehicle id="veh11" type="car" depart="11">
        <route edges="B2B1 B1A1"/>
    </vehicle>
    <vehicle id="veh12" type="car" depart="12">
        <route edges="B0B1 B1B2"/>
    </vehicle>
    <vehicle id="veh13" type="car" depart="13">
        <route edges="B2B1 B1C1"/>
    </vehicle>
    <vehicle id="veh14" type="car" depart="14">
        <route edges="A1B1 B1C1"/>
    </vehicle>
    <vehicle id="veh15" type="car" depart="15">
        <route edges="C1B1 B1B2"/>
    </vehicle>
    <vehicle id="veh16" type="car" depart="16">
        <route edges="B0B1 B1C1"/>
    </vehicle>
    <vehicle id="veh17" type="car" depart="17">
        <route edges="C1B1 B1B0"/>
    </vehicle>
    <vehicle id="veh18" type="car" depart="18">
        <route edges="A1B1 B1C1"/>
    </vehicle>
    <vehicle id="veh19" type="car" depart="19">
        <route edges="B0B1 B1C1"/>
    </vehicle>
    <vehicle id="veh20" type="car" depart="20">
        <route edges="B0B1 B1A1"/>
    </vehicle>
    <vehicle id="veh21" type="car" depart="21">
        <route edges="B2B1 B1C1"/>
    </vehicle>
    <vehicle id="veh22" type="car" depart="22">
        <route edges="A1B1 B1B2"/>
    </vehicle>
    <vehicle id="veh23" type="car" depart="23">
        <route edges="B2B1 B1B0"/>
    </vehicle>
    <vehicle id="veh24" type="car" depart="24">
        <route edges="B2B1 B1C1"/>
    </vehicle>
    <vehicle id="veh25" type="car" depart="25">
        <route edges="B2B1 B1A1"/>
    </vehicle>
    <vehicle id="veh26" type="car" depart="26">
        <route edges="B0B1 B1C1"/>
    </vehicle>
    <vehicle id="veh27" type="car" depart="27">
        <route edges="C1B1 B1B0"/>
    </vehicle>
    <vehicle id="veh28" type="car" depart="28">
        <route edges="B0B1 B1C1"/>
    </vehicle>
    <vehicle id="veh29" type="car" depart="29">
        <route edges="A1B1 B1C1"/>
    </vehicle>
    <vehicle id="veh30" type="car" depart="30">
        <route edges="C1B1 B1A1"/>
    </vehicle>
    <vehicle id="veh31" type="car" depart="31">
        <route edges="C1B1 B1B0"/>
    </vehicle>
    <vehicle id="veh32" type="car" depart="32">
        <route edges="C1B1 B1B2"/>
    </vehicle>
    <vehicle id="veh33" type="car" depart="33">
        <route edges="A1B1 B1B0"/>
    </vehicle>
    <vehicle id="veh34" type="car" depart="34">
        <route edges="B0B1 B1A1"/>
    </vehicle>
    <vehicle id="veh35" type="car" depart="35">
        <route edges="A1B1 B1B2"/>
    </vehicle>
    <vehicle id="veh36" type="car" depart="36">
        <route edges="C1B1 B1A1"/>
    </vehicle>
    <vehicle id="veh37" type="car" depart="37">
        <route edges="B0B1 B1C1"/>
    </vehicle>
    <vehicle id="veh38" type="car" depart="38">
        <route edges="B0B1 B1A1"/>
    </vehicle>
    <vehicle id="veh39" type="car" depart="39">
        <route edges="B0B1 B1C1"/>
    </vehicle>
    <vehicle id="veh40" type="car" depart="40">
        <route edges="A1B1 B1C1"/>
    </vehicle>
    <vehicle id="veh41" type="car" depart="41">
        <route edges="B2B1 B1B0"/>
    </vehicle>
    <vehicle id="veh42" type="car" depart="42">
        <route edges="A1B1 B1B0"/>
    </vehicle>
    <vehicle id="veh43" type="car" depart="43">
        <route edges="B2B1 B1A1"/>
    </vehicle>
    <vehicle id="veh44" type="car" depart="44">
        <route edges="B2B1 B1B0"/>
    </vehicle>
    <vehicle id="veh45" type="car" depart="45">
        <route edges="A1B1 B1B2"/>
    </vehicle>
    <vehicle id="veh46" type="car" depart="46">
        <route edges="A1B1 B1C1"/>
    </vehicle>
    <vehicle id="veh47" type="car" depart="47">
        <route edges="B0B1 B1C1"/>
    </vehicle>
    <vehicle id="veh48" type="car" depart="48">
        <route edges="B0B1 B1A1"/>
    </vehicle>
    <vehicle id="veh49" type="car" depart="49">
        <route edges="B2B1 B1B0"/>
    </vehicle>
    <vehicle id="veh50" type="car" depart="50">
        <route edges="B0B1 B1C1"/>
    </vehicle>
    <vehicle id="veh51" type="car" depart="51">
        <route edges="A1B1 B1B2"/>
    </vehicle>
    <vehicle id="veh52" type="car" depart="52">
        <route edges="A1B1 B1B0"/>
    </vehicle>
    <vehicle id="veh53" type="car" depart="53">
        <route edges="A1B1 B1C1"/>
    </vehicle>
    <vehicle id="veh54" type="car" depart="54">
        <route edges="A1B1 B1B2"/>
    </vehicle>
    <vehicle id="veh55" type="car" depart="55">
        <route edges="A1B1 B1B2"/>
    </vehicle>
    <vehicle id="veh56" type="car" depart="56">
        <route edges="B2B1 B1B0"/>
    </vehicle>
    <vehicle id="veh57" type="car" depart="57">
        <route edges="C1B1 B1A1"/>
    </vehicle>
    <vehicle id="veh58" type="car" depart="58">
        <route edges="B2B1 B1C1"/>
    </vehicle>
    <vehicle id="veh59" type="car" depart="59">
        <route edges="A1B1 B1B2"/>
    </vehicle>
    <vehicle id="veh60" type="car" depart="60">
        <route edges="B0B1 B1A1"/>
    </vehicle>
    <vehicle id="veh61" type="car" depart="61">
        <route edges="B0B1 B1C1"/>
    </vehicle>
    <vehicle id="veh62" type="car" depart="62">
        <route edges="B2B1 B1B0"/>
    </vehicle>
    <vehicle id="veh63" type="car" depart="63">
        <route edges="B2B1 B1C1"/>
    </vehicle>
    <vehicle id="veh64" type="car" depart="64">
        <route edges="B2B1 B1C1"/>
    </vehicle>
    <vehicle id="veh65" type="car" depart="65">
        <route edges="B2B1 B1A1"/>
    </vehicle>
    <vehicle id="veh66" type="car" depart="66">
        <route edges="B2B1 B1C1"/>
    </vehicle>
    <vehicle id="veh67" type="car" depart="67">
        <route edges="A1B1 B1B0"/>
    </vehicle>
    <vehicle id="veh68" type="car" depart="68">
        <route edges="C1B1 B1A1"/>
    </vehicle>
    <vehicle id="veh69" type="car" depart="69">
        <route edges="B2B1 B1B0"/>
    </vehicle>
    <vehicle id="veh70" type="car" depart="70">
        <route edges="B0B1 B1A1"/>
    </vehicle>
    <vehicle id="veh71" type="car" depart="71">
        <route edges="C1B1 B1B0"/>
    </vehicle>
    <vehicle id="veh72" type="car" depart="72">
        <route edges="B0B1 B1B2"/>
    </vehicle>
    <vehicle id="veh73" type="car" depart="73">
        <route edges="B2B1 B1C1"/>
    </vehicle>
    <vehicle id="veh74" type="car" depart="74">
        <route edges="B0B1 B1A1"/>
    </vehicle>
    <vehicle id="veh75" type="car" depart="75">
        <route edges="B0B1 B1A1"/>
    </vehicle>
    <vehicle id="veh76" type="car" depart="76">
        <route edges="C1B1 B1A1"/>
    </vehicle>
    <vehicle id="veh77" type="car" depart="77">
        <route edges="B0B1 B1A1"/>
    </vehicle>
    <vehicle id="veh78" type="car" depart="78">
        <route edges="C1B1 B1B0"/>
    </vehicle>
    <vehicle id="veh79" type="car" depart="79">
        <route edges="B2B1 B1A1"/>
    </vehicle>
    <vehicle id="veh80" type="car" depart="80">
        <route edges="A1B1 B1B0"/>
    </vehicle>
    <vehicle id="veh81" type="car" depart="81">
        <route edges="A1B1 B1B0"/>
    </vehicle>
    <vehicle id="veh82" type="car" depart="82">
        <route edges="C1B1 B1B0"/>
    </vehicle>
    <vehicle id="veh83" type="car" depart="83">
        <route edges="B0B1 B1B2"/>
    </vehicle>
    <vehicle id="veh84" type="car" depart="84">
        <route edges="B2B1 B1B0"/>
    </vehicle>
    <vehicle id="veh85" type="car" depart="85">
        <route edges="C1B1 B1B2"/>
    </vehicle>
    <vehicle id="veh86" type="car" depart="86">
        <route edges="B2B1 B1C1"/>
    </vehicle>
    <vehicle id="veh87" type="car" depart="87">
        <route edges="B0B1 B1A1"/>
    </vehicle>
    <vehicle id="veh88" type="car" depart="88">
        <route edges="C1B1 B1B2"/>
    </vehicle>
    <vehicle id="veh89" type="car" depart="89">
        <route edges="A1B1 B1B2"/>
    </vehicle>
    <vehicle id="veh90" type="car" depart="90">
        <route edges="B0B1 B1A1"/>
    </vehicle>
    <vehicle id="veh91" type="car" depart="91">
        <route edges="B0B1 B1B2"/>
    </vehicle>
    <vehicle id="veh92" type="car" depart="92">
        <route edges="B2B1 B1C1"/>
    </vehicle>
    <vehicle id="veh93" type="car" depart="93">
        <route edges="C1B1 B1B2"/>
    </vehicle>
    <vehicle id="veh94" type="car" depart="94">
        <route edges="B2B1 B1B0"/>
    </vehicle>
    <vehicle id="veh95" type="car" depart="95">
        <route edges="C1B1 B1B2"/>
    </vehicle>
    <vehicle id="veh96" type="car" depart="96">
        <route edges="C1B1 B1B2"/>
    </vehicle>
    <vehicle id="veh97" type="car" depart="97">
        <route edges="B2B1 B1A1"/>
    </vehicle>
    <vehicle id="veh98" type="car" depart="98">
        <route edges="B2B1 B1B0"/>
    </vehicle>
    <vehicle id="veh99" type="car" depart="99">
        <route edges="B0B1 B1C1"/>
    </vehicle>
    <vehicle id="veh100" type="car" depart="100">
        <route edges="B2B1 B1B0"/>
    </vehicle>
    <vehicle id="veh101" type="car" depart="101">
        <route edges="B2B1 B1B0"/>
    </vehicle>
    <vehicle id="veh102" type="car" depart="102">
        <route edges="C1B1 B1B0"/>
    </vehicle>
    <vehicle id="veh103" type="car" depart="103">
        <route edges="A1B1 B1C1"/>
    </vehicle>
    <vehicle id="veh104" type="car" depart="104">
        <route edges="C1B1 B1B0"/>
    </vehicle>
    <vehicle id="veh105" type="car" depart="105">
        <route edges="C1B1 B1A1"/>
    </vehicle>
    <vehicle id="veh106" type="car" depart="106">
        <route edges="B2B1 B1B0"/>
    </vehicle>
    <vehicle id="veh107" type="car" depart="107">
        <route edges="B2B1 B1C1"/>
    </vehicle>
    <vehicle id="veh108" type="car" depart="108">
        <route edges="A1B1 B1B2"/>
    </vehicle>
    <vehicle id="veh109" type="car" depart="109">
        <route edges="B2B1 B1A1"/>
    </vehicle>
    <vehicle id="veh110" type="car" depart="110">
        <route edges="B0B1 B1A1"/>
    </vehicle>
    <vehicle id="veh111" type="car" depart="111">
        <route edges="B0B1 B1B2"/>
    </vehicle>
    <vehicle id="veh112" type="car" depart="112">
        <route edges="C1B1 B1B0"/>
    </vehicle>
    <vehicle id="veh113" type="car" depart="113">
        <route edges="B0B1 B1A1"/>
    </vehicle>
    <vehicle id="veh114" type="car" depart="114">
        <route edges="B0B1 B1B2"/>
    </vehicle>
    <vehicle id="veh115" type="car" depart="115">
        <route edges="C1B1 B1A1"/>
    </vehicle>
    <vehicle id="veh116" type="car" depart="116">
        <route edges="B0B1 B1A1"/>
    </vehicle>
    <vehicle id="veh117" type="car" depart="117">
        <route edges="C1B1 B1B0"/>
    </vehicle>
    <vehicle id="veh118" type="car" depart="118">
        <route edges="B0B1 B1B2"/>
    </vehicle>
    <vehicle id="veh119" type="car" depart="119">
        <route edges="B0B1 B1C1"/>
    </vehicle>
    <vehicle id="veh120" type="car" depart="120">
        <route edges="B0B1 B1B2"/>
    </vehicle>
    <vehicle id="veh121" type="car" depart="121">
        <route edges="B2B1 B1A1"/>
    </vehicle>
    <vehicle id="veh122" type="car" depart="122">
        <route edges="C1B1 B1B0"/>
    </vehicle>
    <vehicle id="veh123" type="car" depart="123">
        <route edges="B2B1 B1A1"/>
    </vehicle>
    <vehicle id="veh124" type="car" depart="124">
        <route edges="C1B1 B1A1"/>
    </vehicle>
    <vehicle id="veh125" type="car" depart="125">
        <route edges="B2B1 B1C1"/>
    </vehicle>
    <vehicle id="veh126" type="car" depart="126">
        <route edges="B0B1 B1A1"/>
    </vehicle>
    <vehicle id="veh127" type="car" depart="127">
        <route edges="A1B1 B1B0"/>
    </vehicle>
    <vehicle id="veh128" type="car" depart="128">
        <route edges="B0B1 B1A1"/>
    </vehicle>
    <vehicle id="veh129" type="car" depart="129">
        <route edges="C1B1 B1A1"/>
    </vehicle>
    <vehicle id="veh130" type="car" depart="130">
        <route edges="A1B1 B1B0"/>
    </vehicle>
    <vehicle id="veh131" type="car" depart="131">
        <route edges="B2B1 B1B0"/>
    </vehicle>
    <vehicle id="veh132" type="car" depart="132">
        <route edges="A1B1 B1C1"/>
    </vehicle>
    <vehicle id="veh133" type="car" depart="133">
        <route edges="B0B1 B1B2"/>
    </vehicle>
    <vehicle id="veh134" type="car" depart="134">
        <route edges="B2B1 B1C1"/>
    </vehicle>
    <vehicle id="veh135" type="car" depart="135">
        <route edges="A1B1 B1B2"/>
    </vehicle>
    <vehicle id="veh136" type="car" depart="136">
        <route edges="A1B1 B1C1"/>
    </vehicle>
    <vehicle id="veh137" type="car" depart="137">
        <route edges="B2B1 B1C1"/>
    </vehicle>
    <vehicle id="veh138" type="car" depart="138">
        <route edges="C1B1 B1B2"/>
    </vehicle>
    <vehicle id="veh139" type="car" depart="139">
        <route edges="A1B1 B1C1"/>
    </vehicle>
    <vehicle id="veh140" type="car" depart="140">
        <route edges="B0B1 B1A1"/>
    </vehicle>
    <vehicle id="veh141" type="car" depart="141">
        <route edges="B2B1 B1B0"/>
    </vehicle>
    <vehicle id="veh142" type="car" depart="142">
        <route edges="A1B1 B1B2"/>
    </vehicle>
    <vehicle id="veh143" type="car" depart="143">
        <route edges="C1B1 B1B0"/>
    </vehicle>
    <vehicle id="veh144" type="car" depart="144">
        <route edges="C1B1 B1A1"/>
    </vehicle>
    <vehicle id="veh145" type="car" depart="145">
        <route edges="C1B1 B1A1"/>
    </vehicle>
    <vehicle id="veh146" type="car" depart="146">
        <route edges="A1B1 B1B0"/>
    </vehicle>
    <vehicle id="veh147" type="car" depart="147">
        <route edges="A1B1 B1B0"/>
    </vehicle>
    <vehicle id="veh148" type="car" depart="148">
        <route edges="B2B1 B1C1"/>
    </vehicle>
    <vehicle id="veh149" type="car" depart="149">
        <route edges="C1B1 B1A1"/>
    </vehicle>
    <vehicle id="veh150" type="car" depart="150">
        <route edges="C1B1 B1B2"/>
    </vehicle>
    <vehicle id="veh151" type="car" depart="151">
        <route edges="A1B1 B1B2"/>
    </vehicle>
    <vehicle id="veh152" type="car" depart="152">
        <route edges="A1B1 B1C1"/>
    </vehicle>
    <vehicle id="veh153" type="car" depart="153">
        <route edges="B2B1 B1B0"/>
    </vehicle>
    <vehicle id="veh154" type="car" depart="154">
        <route edges="C1B1 B1A1"/>
    </vehicle>
    <vehicle id="veh155" type="car" depart="155">
        <route edges="B2B1 B1A1"/>
    </vehicle>
    <vehicle id="veh156" type="car" depart="156">
        <route edges="B2B1 B1B0"/>
    </vehicle>
    <vehicle id="veh157" type="car" depart="157">
        <route edges="C1B1 B1A1"/>
    </vehicle>
    <vehicle id="veh158" type="car" depart="158">
        <route edges="B2B1 B1C1"/>
    </vehicle>
    <vehicle id="veh159" type="car" depart="159">
        <route edges="B2B1 B1C1"/>
    </vehicle>
    <vehicle id="veh160" type="car" depart="160">
        <route edges="A1B1 B1B0"/>
    </vehicle>
    <vehicle id="veh161" type="car" depart="161">
        <route edges="B2B1 B1B0"/>
    </vehicle>
    <vehicle id="veh162" type="car" depart="162">
        <route edges="B0B1 B1A1"/>
    </vehicle>
    <vehicle id="veh163" type="car" depart="163">
        <route edges="B0B1 B1B2"/>
    </vehicle>
    <vehicle id="veh164" type="car" depart="164">
        <route edges="C1B1 B1B2"/>
    </vehicle>
    <vehicle id="veh165" type="car" depart="165">
        <route edges="B2B1 B1C1"/>
    </vehicle>
    <vehicle id="veh166" type="car" depart="166">
        <route edges="B0B1 B1A1"/>
    </vehicle>
    <vehicle id="veh167" type="car" depart="167">
        <route edges="B2B1 B1A1"/>
    </vehicle>
    <vehicle id="veh168" type="car" depart="168">
        <route edges="B2B1 B1A1"/>
    </vehicle>
    <vehicle id="veh169" type="car" depart="169">
        <route edges="B0B1 B1A1"/>
    </vehicle>
    <vehicle id="veh170" type="car" depart="170">
        <route edges="A1B1 B1B0"/>
    </vehicle>
    <vehicle id="veh171" type="car" depart="171">
        <route edges="C1B1 B1A1"/>
    </vehicle>
    <vehicle id="veh172" type="car" depart="172">
        <route edges="A1B1 B1B2"/>
    </vehicle>
    <vehicle id="veh173" type="car" depart="173">
        <route edges="C1B1 B1B0"/>
    </vehicle>
    <vehicle id="veh174" type="car" depart="174">
        <route edges="A1B1 B1B0"/>
    </vehicle>
    <vehicle id="veh175" type="car" depart="175">
        <route edges="B0B1 B1C1"/>
    </vehicle>
    <vehicle id="veh176" type="car" depart="176">
        <route edges="A1B1 B1B0"/>
    </vehicle>
    <vehicle id="veh177" type="car" depart="177">
        <route edges="B2B1 B1C1"/>
    </vehicle>
    <vehicle id="veh178" type="car" depart="178">
        <route edges="C1B1 B1B0"/>
    </vehicle>
    <vehicle id="veh179" type="car" depart="179">
        <route edges="B0B1 B1B2"/>
    </vehicle>
    <vehicle id="veh180" type="car" depart="180">
        <route edges="B2B1 B1B0"/>
    </vehicle>
    <vehicle id="veh181" type="car" depart="181">
        <route edges="A1B1 B1C1"/>
    </vehicle>
    <vehicle id="veh182" type="car" depart="182">
        <route edges="A1B1 B1C1"/>
    </vehicle>
    <vehicle id="veh183" type="car" depart="183">
        <route edges="B0B1 B1C1"/>
    </vehicle>
    <vehicle id="veh184" type="car" depart="184">
        <route edges="B2B1 B1B0"/>
    </vehicle>
    <vehicle id="veh185" type="car" depart="185">
        <route edges="C1B1 B1B2"/>
    </vehicle>
    <vehicle id="veh186" type="car" depart="186">
        <route edges="B0B1 B1B2"/>
    </vehicle>
    <vehicle id="veh187" type="car" depart="187">
        <route edges="B2B1 B1B0"/>
    </vehicle>
    <vehicle id="veh188" type="car" depart="188">
        <route edges="C1B1 B1B0"/>
    </vehicle>
    <vehicle id="veh189" type="car" depart="189">
        <route edges="B2B1 B1A1"/>
    </vehicle>
    <vehicle id="veh190" type="car" depart="190">
        <route edges="B2B1 B1C1"/>
    </vehicle>
    <vehicle id="veh191" type="car" depart="191">
        <route edges="B0B1 B1C1"/>
    </vehicle>
    <vehicle id="veh192" type="car" depart="192">
        <route edges="B2B1 B1C1"/>
    </vehicle>
    <vehicle id="veh193" type="car" depart="193">
        <route edges="C1B1 B1A1"/>
    </vehicle>
    <vehicle id="veh194" type="car" depart="194">
        <route edges="C1B1 B1B2"/>
    </vehicle>
    <vehicle id="veh195" type="car" depart="195">
        <route edges="B2B1 B1C1"/>
    </vehicle>
    <vehicle id="veh196" type="car" depart="196">
        <route edges="B0B1 B1A1"/>
    </vehicle>
    <vehicle id="veh197" type="car" depart="197">
        <route edges="A1B1 B1C1"/>
    </vehicle>
    <vehicle id="veh198" type="car" depart="198">
        <route edges="C1B1 B1A1"/>
    </vehicle>
    <vehicle id="veh199" type="car" depart="199">
        <route edges="B0B1 B1A1"/>
    </vehicle>
    <vehicle id="veh200" type="car" depart="200">
        <route edges="A1B1 B1B0"/>
    </vehicle>
    <vehicle id="veh201" type="car" depart="201">
        <route edges="C1B1 B1A1"/>
    </vehicle>
    <vehicle id="veh202" type="car" depart="202">
        <route edges="A1B1 B1B2"/>
    </vehicle>
    <vehicle id="veh203" type="car" depart="203">
        <route edges="B2B1 B1B0"/>
    </vehicle>
    <vehicle id="veh204" type="car" depart="204">
        <route edges="A1B1 B1B2"/>
    </vehicle>
    <vehicle id="veh205" type="car" depart="205">
        <route edges="A1B1 B1B2"/>
    </vehicle>
    <vehicle id="veh206" type="car" depart="206">
        <route edges="B2B1 B1C1"/>
    </vehicle>
    <vehicle id="veh207" type="car" depart="207">
        <route edges="A1B1 B1C1"/>
    </vehicle>
    <vehicle id="veh208" type="car" depart="208">
        <route edges="C1B1 B1B2"/>
    </vehicle>
    <vehicle id="veh209" type="car" depart="209">
        <route edges="A1B1 B1C1"/>
    </vehicle>
    <vehicle id="veh210" type="car" depart="210">
        <route edges="C1B1 B1B2"/>
    </vehicle>
    <vehicle id="veh211" type="car" depart="211">
        <route edges="C1B1 B1B2"/>
    </vehicle>
    <vehicle id="veh212" type="car" depart="212">
        <route edges="C1B1 B1A1"/>
    </vehicle>
    <vehicle id="veh213" type="car" depart="213">
        <route edges="C1B1 B1B0"/>
    </vehicle>
    <vehicle id="veh214" type="car" depart="214">
        <route edges="A1B1 B1C1"/>
    </vehicle>
    <vehicle id="veh215" type="car" depart="215">
        <route edges="B2B1 B1B0"/>
    </vehicle>
    <vehicle id="veh216" type="car" depart="216">
        <route edges="B0B1 B1B2"/>
    </vehicle>
    <vehicle id="veh217" type="car" depart="217">
        <route edges="A1B1 B1C1"/>
    </vehicle>
    <vehicle id="veh218" type="car" depart="218">
        <route edges="B2B1 B1A1"/>
    </vehicle>
    <vehicle id="veh219" type="car" depart="219">
        <route edges="B2B1 B1C1"/>
    </vehicle>
    <vehicle id="veh220" type="car" depart="220">
        <route edges="C1B1 B1B0"/>
    </vehicle>
    <vehicle id="veh221" type="car" depart="221">
        <route edges="C1B1 B1B0"/>
    </vehicle>
    <vehicle id="veh222" type="car" depart="222">
        <route edges="B0B1 B1C1"/>
    </vehicle>
    <vehicle id="veh223" type="car" depart="223">
        <route edges="A1B1 B1B0"/>
    </vehicle>
    <vehicle id="veh224" type="car" depart="224">
        <route edges="A1B1 B1C1"/>
    </vehicle>
    <vehicle id="veh225" type="car" depart="225">
        <route edges="A1B1 B1C1"/>
    </vehicle>
    <vehicle id="veh226" type="car" depart="226">
        <route edges="A1B1 B1B0"/>
    </vehicle>
    <vehicle id="veh227" type="car" depart="227">
        <route edges="A1B1 B1C1"/>
    </vehicle>
    <vehicle id="veh228" type="car" depart="228">
        <route edges="C1B1 B1A1"/>
    </vehicle>
    <vehicle id="veh229" type="car" depart="229">
        <route edges="C1B1 B1B2"/>
    </vehicle>
    <vehicle id="veh230" type="car" depart="230">
        <route edges="B0B1 B1C1"/>
    </vehicle>
    <vehicle id="veh231" type="car" depart="231">
        <route edges="B0B1 B1B2"/>
    </vehicle>
    <vehicle id="veh232" type="car" depart="232">
        <route edges="B0B1 B1A1"/>
    </vehicle>
    <vehicle id="veh233" type="car" depart="233">
        <route edges="B0B1 B1C1"/>
    </vehicle>
    <vehicle id="veh234" type="car" depart="234">
        <route edges="B2B1 B1C1"/>
    </vehicle>
    <vehicle id="veh235" type="car" depart="235">
        <route edges="A1B1 B1B2"/>
    </vehicle>
    <vehicle id="veh236" type="car" depart="236">
        <route edges="B2B1 B1C1"/>
    </vehicle>
    <vehicle id="veh237" type="car" depart="237">
        <route edges="B0B1 B1A1"/>
    </vehicle>
    <vehicle id="veh238" type="car" depart="238">
        <route edges="A1B1 B1C1"/>
    </vehicle>
    <vehicle id="veh239" type="car" depart="239">
        <route edges="A1B1 B1B0"/>
    </vehicle>
    <vehicle id="veh240" type="car" depart="240">
        <route edges="B2B1 B1A1"/>
    </vehicle>
    <vehicle id="veh241" type="car" depart="241">
        <route edges="A1B1 B1C1"/>
    </vehicle>
    <vehicle id="veh242" type="car" depart="242">
        <route edges="A1B1 B1B2"/>
    </vehicle>
    <vehicle id="veh243" type="car" depart="243">
        <route edges="B0B1 B1C1"/>
    </vehicle>
    <vehicle id="veh244" type="car" depart="244">
        <route edges="A1B1 B1B0"/>
    </vehicle>
    <vehicle id="veh245" type="car" depart="245">
        <route edges="A1B1 B1B2"/>
    </vehicle>
    <vehicle id="veh246" type="car" depart="246">
        <route edges="B2B1 B1A1"/>
    </vehicle>
    <vehicle id="veh247" type="car" depart="247">
        <route edges="B2B1 B1A1"/>
    </vehicle>
    <vehicle id="veh248" type="car" depart="248">
        <route edges="A1B1 B1B0"/>
    </vehicle>
    <vehicle id="veh249" type="car" depart="249">
        <route edges="C1B1 B1B2"/>
    </vehicle>
    <vehicle id="veh250" type="car" depart="250">
        <route edges="A1B1 B1B2"/>
    </vehicle>
    <vehicle id="veh251" type="car" depart="251">
        <route edges="C1B1 B1B0"/>
    </vehicle>
    <vehicle id="veh252" type="car" depart="252">
        <route edges="B0B1 B1C1"/>
    </vehicle>
    <vehicle id="veh253" type="car" depart="253">
        <route edges="B2B1 B1A1"/>
    </vehicle>
    <vehicle id="veh254" type="car" depart="254">
        <route edges="B0B1 B1B2"/>
    </vehicle>
    <vehicle id="veh255" type="car" depart="255">
        <route edges="B2B1 B1B0"/>
    </vehicle>
    <vehicle id="veh256" type="car" depart="256">
        <route edges="B0B1 B1B2"/>
    </vehicle>
    <vehicle id="veh257" type="car" depart="257">
        <route edges="B0B1 B1A1"/>
    </vehicle>
    <vehicle id="veh258" type="car" depart="258">
        <route edges="B0B1 B1A1"/>
    </vehicle>
    <vehicle id="veh259" type="car" depart="259">
        <route edges="C1B1 B1B0"/>
    </vehicle>
    <vehicle id="veh260" type="car" depart="260">
        <route edges="C1B1 B1B2"/>
    </vehicle>
    <vehicle id="veh261" type="car" depart="261">
        <route edges="A1B1 B1C1"/>
    </vehicle>
    <vehicle id="veh262" type="car" depart="262">
        <route edges="B2B1 B1A1"/>
    </vehicle>
    <vehicle id="veh263" type="car" depart="263">
        <route edges="A1B1 B1B0"/>
    </vehicle>
    <vehicle id="veh264" type="car" depart="264">
        <route edges="C1B1 B1A1"/>
    </vehicle>
    <vehicle id="veh265" type="car" depart="265">
        <route edges="B0B1 B1A1"/>
    </vehicle>
    <vehicle id="veh266" type="car" depart="266">
        <route edges="B2B1 B1A1"/>
    </vehicle>
    <vehicle id="veh267" type="car" depart="267">
        <route edges="A1B1 B1B0"/>
    </vehicle>
    <vehicle id="veh268" type="car" depart="268">
        <route edges="C1B1 B1A1"/>
    </vehicle>
    <vehicle id="veh269" type="car" depart="269">
        <route edges="B0B1 B1B2"/>
    </vehicle>
    <vehicle id="veh270" type="car" depart="270">
        <route edges="A1B1 B1B2"/>
    </vehicle>
    <vehicle id="veh271" type="car" depart="271">
        <route edges="A1B1 B1B2"/>
    </vehicle>
    <vehicle id="veh272" type="car" depart="272">
        <route edges="B0B1 B1B2"/>
    </vehicle>
    <vehicle id="veh273" type="car" depart="273">
        <route edges="B2B1 B1C1"/>
    </vehicle>
    <vehicle id="veh274" type="car" depart="274">
        <route edges="B2B1 B1A1"/>
    </vehicle>
    <vehicle id="veh275" type="car" depart="275">
        <route edges="C1B1 B1B2"/>
    </vehicle>
    <vehicle id="veh276" type="car" depart="276">
        <route edges="B2B1 B1A1"/>
    </vehicle>
    <vehicle id="veh277" type="car" depart="277">
        <route edges="C1B1 B1A1"/>
    </vehicle>
    <vehicle id="veh278" type="car" depart="278">
        <route edges="A1B1 B1C1"/>
    </vehicle>
    <vehicle id="veh279" type="car" depart="279">
        <route edges="B0B1 B1C1"/>
    </vehicle>
    <vehicle id="veh280" type="car" depart="280">
        <route edges="B0B1 B1C1"/>
    </vehicle>
    <vehicle id="veh281" type="car" depart="281">
        <route edges="C1B1 B1A1"/>
    </vehicle>
    <vehicle id="veh282" type="car" depart="282">
        <route edges="B0B1 B1B2"/>
    </vehicle>
    <vehicle id="veh283" type="car" depart="283">
        <route edges="B0B1 B1B2"/>
    </vehicle>
    <vehicle id="veh284" type="car" depart="284">
        <route edges="B2B1 B1B0"/>
    </vehicle>
    <vehicle id="veh285" type="car" depart="285">
        <route edges="C1B1 B1B2"/>
    </vehicle>
    <vehicle id="veh286" type="car" depart="286">
        <route edges="A1B1 B1C1"/>
    </vehicle>
    <vehicle id="veh287" type="car" depart="287">
        <route edges="C1B1 B1B0"/>
    </vehicle>
    <vehicle id="veh288" type="car" depart="288">
        <route edges="B0B1 B1A1"/>
    </vehicle>
    <vehicle id="veh289" type="car" depart="289">
        <route edges="A1B1 B1C1"/>
    </vehicle>
    <vehicle id="veh290" type="car" depart="290">
        <route edges="B2B1 B1A1"/>
    </vehicle>
    <vehicle id="veh291" type="car" depart="291">
        <route edges="B2B1 B1B0"/>
    </vehicle>
    <vehicle id="veh292" type="car" depart="292">
        <route edges="A1B1 B1C1"/>
    </vehicle>
    <vehicle id="veh293" type="car" depart="293">
        <route edges="C1B1 B1B2"/>
    </vehicle>
    <vehicle id="veh294" type="car" depart="294">
        <route edges="B2B1 B1A1"/>
    </vehicle>
    <vehicle id="veh295" type="car" depart="295">
        <route edges="B2B1 B1B0"/>
    </vehicle>
    <vehicle id="veh296" type="car" depart="296">
        <route edges="B2B1 B1C1"/>
    </vehicle>
    <vehicle id="veh297" type="car" depart="297">
        <route edges="B0B1 B1C1"/>
    </vehicle>
    <vehicle id="veh298" type="car" depart="298">
        <route edges="B0B1 B1C1"/>
    </vehicle>
    <vehicle id="veh299" type="car" depart="299">
        <route edges="A1B1 B1B0"/>
    </vehicle>
    <vehicle id="veh300" type="car" depart="300">
        <route edges="B2B1 B1B0"/>
    </vehicle>